nct
  Mrv15b2303222209303D          

 27 28  0  0  1  0            999 V2000
    0.8494    2.0979   -1.2515 N   0  0  0  0  0  0  0  0  0  0  0  0
    0.1411    1.1618   -0.5343 C   0  0  0  0  0  0  0  0  0  0  0  0
    0.1212   -0.1943   -1.0177 C   0  0  0  0  0  0  0  0  0  0  0  0
    0.8498   -0.4600   -2.2345 C   0  0  0  0  0  0  0  0  0  0  0  0
    1.5986    0.4947   -2.9636 C   0  0  0  0  0  0  0  0  0  0  0  0
    1.5574    1.8010   -2.4065 C   0  0  0  0  0  0  0  0  0  0  0  0
   -1.9133   -1.5600   -0.6396 N   0  3  1  0  0  4  0  0  0  0  0  0
   -0.5464   -1.2599   -0.2060 C   0  0  1  0  0  0  0  0  0  0  0  0
    0.1320   -2.6484   -0.2818 C   0  0  1  0  0  0  0  0  0  0  0  0
   -0.9318   -3.5827    0.2806 C   0  0  2  0  0  0  0  0  0  0  0  0
   -2.2358   -2.9385   -0.2030 C   0  0  1  0  0  0  0  0  0  0  0  0
   -2.8411   -0.6204   -0.0119 C   0  0  0  0  0  0  0  0  0  0  0  0
   -0.3568    1.4214    0.3173 H   0  0  0  0  0  0  0  0  0  0  0  0
    0.8231   -1.4125   -2.5986 H   0  0  0  0  0  0  0  0  0  0  0  0
    2.1194    0.2660   -3.8102 H   0  0  0  0  0  0  0  0  0  0  0  0
    2.0684    2.5496   -2.8743 H   0  0  0  0  0  0  0  0  0  0  0  0
   -1.9388   -1.5330   -1.6610 H   0  0  0  0  0  0  0  0  0  0  0  0
   -0.6067   -0.9550    0.8394 H   0  0  0  0  0  0  0  0  0  0  0  0
    0.3243   -2.9024   -1.3242 H   0  0  0  0  0  0  0  0  0  0  0  0
    1.0770   -2.6963    0.2593 H   0  0  0  0  0  0  0  0  0  0  0  0
   -0.8971   -3.5591    1.3698 H   0  0  0  0  0  0  0  0  0  0  0  0
   -0.8142   -4.6169   -0.0430 H   0  0  0  0  0  0  0  0  0  0  0  0
   -2.9497   -2.9014    0.6198 H   0  0  0  0  0  0  0  0  0  0  0  0
   -2.6651   -3.4738   -1.0499 H   0  0  0  0  0  0  0  0  0  0  0  0
   -3.8580   -0.8437   -0.3345 H   0  0  0  0  0  0  0  0  0  0  0  0
   -2.7749   -0.7140    1.0720 H   0  0  0  0  0  0  0  0  0  0  0  0
   -2.5819    0.3969   -0.3053 H   0  0  0  0  0  0  0  0  0  0  0  0
  1  6  1  0  0  0  0
  2  1  2  0  0  0  0
  3  2  1  0  0  0  0
  3  4  2  0  0  0  0
  4  5  1  0  0  0  0
  5  6  2  0  0  0  0
  5 15  1  0  0  0  0
  6 16  1  0  0  0  0
  7  8  1  0  0  0  0
  7 17  1  0  0  0  0
  7 12  1  0  0  0  0
  8 18  1  0  0  0  0
  8  3  1  0  0  0  0
  9 20  1  0  0  0  0
  9  8  1  0  0  0  0
 10 11  1  0  0  0  0
 10  9  1  0  0  0  0
 11  7  1  0  0  0  0
 12 27  1  0  0  0  0
 13  2  1  0  0  0  0
 14  4  1  0  0  0  0
 19  9  1  0  0  0  0
 21 10  1  0  0  0  0
 22 10  1  0  0  0  0
 23 11  1  0  0  0  0
 24 11  1  0  0  0  0
 25 12  1  0  0  0  0
 26 12  1  0  0  0  0
M  CHG  1   7   1
M  END
