@<TRIPOS>MOLECULE
nct
 27 28 0 0 0
SMALL
GASTEIGER

@<TRIPOS>ATOM
      1 N           0.8494    2.0979   -1.2515 N.ar    1  UNL11      -0.2628
      2 C           0.1411    1.1618   -0.5343 C.ar    1  UNL11       0.0360
      3 C           0.1212   -0.1943   -1.0177 C.ar    1  UNL11       0.0182
      4 C           0.8498   -0.4600   -2.2345 C.ar    1  UNL11      -0.0504
      5 C           1.5986    0.4947   -2.9636 C.ar    1  UNL11      -0.0431
      6 C           1.5574    1.8010   -2.4065 C.ar    1  UNL11       0.0276
      7 N          -1.9133   -1.5600   -0.6396 N.4     1  UNL11       0.2385
      8 C          -0.5464   -1.2599   -0.2060 C.3     1  UNL11       0.0064
      9 C           0.1320   -2.6484   -0.2818 C.3     1  UNL11      -0.0005
     10 C          -0.9318   -3.5827    0.2806 C.3     1  UNL11      -0.0071
     11 C          -2.2358   -2.9385   -0.2030 C.3     1  UNL11      -0.0314
     12 C          -2.8411   -0.6204   -0.0119 C.3     1  UNL11      -0.0425
     13 H          -0.3568    1.4214    0.3173 H       1  UNL11       0.0834
     14 H           0.8231   -1.4125   -2.5986 H       1  UNL11       0.0623
     15 H           2.1194    0.2660   -3.8102 H       1  UNL11       0.0633
     16 H           2.0684    2.5496   -2.8743 H       1  UNL11       0.0829
     17 H          -1.9388   -1.5330   -1.6610 H       1  UNL11       0.2037
     18 H          -0.6067   -0.9550    0.8394 H       1  UNL11       0.0904
     19 H           0.3243   -2.9024   -1.3242 H       1  UNL11       0.0325
     20 H           1.0770   -2.6963    0.2593 H       1  UNL11       0.0325
     21 H          -0.8971   -3.5591    1.3698 H       1  UNL11       0.0319
     22 H          -0.8142   -4.6169   -0.0430 H       1  UNL11       0.0319
     23 H          -2.9497   -2.9014    0.6198 H       1  UNL11       0.0814
     24 H          -2.6651   -3.4738   -1.0499 H       1  UNL11       0.0814
     25 H          -3.8580   -0.8437   -0.3345 H       1  UNL11       0.0778
     26 H          -2.7749   -0.7140    1.0720 H       1  UNL11       0.0778
     27 H          -2.5819    0.3969   -0.3053 H       1  UNL11       0.0778
@<TRIPOS>UNITY_ATOM_ATTR
7 1
charge 1
@<TRIPOS>BOND
     1     1     6   ar
     2     2     1   ar
     3     3     2   ar
     4     3     4   ar
     5     4     5   ar
     6     5     6   ar
     7     5    15    1
     8     6    16    1
     9     7     8    1
    10     7    17    1
    11     7    12    1
    12     8    18    1
    13     8     3    1
    14     9    20    1
    15     9     8    1
    16    10    11    1
    17    10     9    1
    18    11     7    1
    19    12    27    1
    20    13     2    1
    21    14     4    1
    22    19     9    1
    23    21    10    1
    24    22    10    1
    25    23    11    1
    26    24    11    1
    27    25    12    1
    28    26    12    1
