NCT
  -OEChem-03112220393D

 26 27  0     1  0  0  0  0  0999 V2000
   -0.6730    1.1480   -2.4250 N   0  0  0  0  0  0  0  0  0  0  0  0
   -0.6330    0.8820   -1.1340 C   0  0  0  0  0  0  0  0  0  0  0  0
   -0.0180   -0.2630   -0.6670 C   0  0  0  0  0  0  0  0  0  0  0  0
    0.5510   -1.1420   -1.5760 C   0  0  0  0  0  0  0  0  0  0  0  0
    0.4840   -0.8320   -2.9250 C   0  0  0  0  0  0  0  0  0  0  0  0
   -0.1420    0.3350   -3.3170 C   0  0  0  0  0  0  0  0  0  0  0  0
    0.6150    0.5860    1.5560 N   0  0  1  0  0  0  0  0  0  0  0  0
    0.0280   -0.5560    0.8100 C   0  0  1  0  0  0  0  0  0  0  0  0
   -1.4030   -0.6620    1.3920 C   0  0  0  0  0  0  0  0  0  0  0  0
   -1.1930   -0.3360    2.8880 C   0  0  0  0  0  0  0  0  0  0  0  0
    0.1280    0.4510    2.9460 C   0  0  0  0  0  0  0  0  0  0  0  0
    2.0660    0.3650    1.5940 C   0  0  0  0  0  0  0  0  0  0  0  0
   -1.0790    1.5720   -0.4330 H   0  0  0  0  0  0  0  0  0  0  0  0
    1.0350   -2.0470   -1.2400 H   0  0  0  0  0  0  0  0  0  0  0  0
    0.9170   -1.4930   -3.6610 H   0  0  0  0  0  0  0  0  0  0  0  0
   -0.1980    0.5850   -4.3660 H   0  0  0  0  0  0  0  0  0  0  0  0
    0.5900   -1.4700    1.0020 H   0  0  0  0  0  0  0  0  0  0  0  0
   -1.7950   -1.6710    1.2680 H   0  0  0  0  0  0  0  0  0  0  0  0
   -2.0630    0.0680    0.9260 H   0  0  0  0  0  0  0  0  0  0  0  0
   -1.1110   -1.2550    3.4680 H   0  0  0  0  0  0  0  0  0  0  0  0
   -2.0150    0.2750    3.2610 H   0  0  0  0  0  0  0  0  0  0  0  0
    0.8590   -0.0920    3.5440 H   0  0  0  0  0  0  0  0  0  0  0  0
   -0.0450    1.4380    3.3750 H   0  0  0  0  0  0  0  0  0  0  0  0
    2.2700   -0.6600    1.9020 H   0  0  0  0  0  0  0  0  0  0  0  0
    2.4860    0.5360    0.6020 H   0  0  0  0  0  0  0  0  0  0  0  0
    2.5210    1.0550    2.3050 H   0  0  0  0  0  0  0  0  0  0  0  0
  1  2  2  0  0  0  0
  1  6  1  0  0  0  0
  2  3  1  0  0  0  0
  2 13  1  0  0  0  0
  3  4  2  0  0  0  0
  3  8  1  0  0  0  0
  4  5  1  0  0  0  0
  4 14  1  0  0  0  0
  5  6  2  0  0  0  0
  5 15  1  0  0  0  0
  6 16  1  0  0  0  0
  7  8  1  0  0  0  0
  7 11  1  0  0  0  0
  7 12  1  0  0  0  0
  8  9  1  0  0  0  0
  8 17  1  0  0  0  0
  9 10  1  0  0  0  0
  9 18  1  0  0  0  0
  9 19  1  0  0  0  0
 10 11  1  0  0  0  0
 10 20  1  0  0  0  0
 10 21  1  0  0  0  0
 11 22  1  0  0  0  0
 11 23  1  0  0  0  0
 12 24  1  0  0  0  0
 12 25  1  0  0  0  0
 12 26  1  0  0  0  0
M  END
> <OPENEYE_ISO_SMILES>
C[N@@]1CCC[C@H]1c2cccnc2

> <OPENEYE_INCHI>
InChI=1S/C10H14N2/c1-12-7-3-5-10(12)9-4-2-6-11-8-9/h2,4,6,8,10H,3,5,7H2,1H3/t10-/m0/s1

> <OPENEYE_INCHIKEY>
SNICXCGAKADSCV-JTQLQIEISA-N

> <FORMULA>
C10H14N2

$$$$
