nct
  Mrv15b2303222209302D          

 27 28  0  0  1  0            999 V2000
   19.1457   30.8007    0.0000 N   0  0  0  0  0  0  0  0  0  0  0  0
   18.3611   30.5457    0.0000 C   0  0  0  0  0  0  0  0  0  0  0  0
   18.1895   29.7388    0.0000 C   0  0  0  0  0  0  0  0  0  0  0  0
   18.8026   29.1867    0.0000 C   0  0  0  0  0  0  0  0  0  0  0  0
   19.5873   29.4417    0.0000 C   0  0  0  0  0  0  0  0  0  0  0  0
   19.7588   30.2487    0.0000 C   0  0  0  0  0  0  0  0  0  0  0  0
   16.7375   29.9688    0.0000 N   0  0  1  0  0  4  0  0  0  0  0  0
   17.4049   29.4838    0.0000 C   0  0  1  0  0  0  0  0  0  0  0  0
   17.1500   28.6992    0.0000 C   0  0  0  0  0  0  0  0  0  0  0  0
   16.3250   28.6992    0.0000 C   0  0  0  0  0  0  0  0  0  0  0  0
   16.0700   29.4838    0.0000 C   0  0  0  0  0  0  0  0  0  0  0  0
   16.7375   30.7938    0.0000 C   0  0  0  0  0  0  0  0  0  0  0  0
   17.7480   31.0978    0.0000 H   0  0  0  0  0  0  0  0  0  0  0  0
   18.6311   28.3798    0.0000 H   0  0  0  0  0  0  0  0  0  0  0  0
   20.2003   28.8896    0.0000 H   0  0  0  0  0  0  0  0  0  0  0  0
   20.5434   30.5036    0.0000 H   0  0  0  0  0  0  0  0  0  0  0  0
   16.0024   30.3433    0.0000 H   0  0  0  0  0  0  0  0  0  0  0  0
   17.5340   30.2987    0.0000 H   0  0  0  0  0  0  0  0  0  0  0  0
   17.8915   28.3376    0.0000 H   0  0  0  0  0  0  0  0  0  0  0  0
   17.2648   27.8822    0.0000 H   0  0  0  0  0  0  0  0  0  0  0  0
   15.5835   28.3376    0.0000 H   0  0  0  0  0  0  0  0  0  0  0  0
   16.2102   27.8822    0.0000 H   0  0  0  0  0  0  0  0  0  0  0  0
   15.2582   29.6306    0.0000 H   0  0  0  0  0  0  0  0  0  0  0  0
   15.3762   29.0375    0.0000 H   0  0  0  0  0  0  0  0  0  0  0  0
   16.7401   31.6188    0.0000 H   0  0  0  0  0  0  0  0  0  0  0  0
   16.0183   31.1980    0.0000 H   0  0  0  0  0  0  0  0  0  0  0  0
   17.4592   31.1934    0.0000 H   0  0  0  0  0  0  0  0  0  0  0  0
  1  6  1  0  0  0  0
  2  1  2  0  0  0  0
  3  2  1  0  0  0  0
  3  4  2  0  0  0  0
  4  5  1  0  0  0  0
  5  6  2  0  0  0  0
  5 15  1  0  0  0  0
  6 16  1  0  0  0  0
  7  8  1  0  0  0  0
  7 17  1  6  0  0  0
  7 12  1  1  0  0  0
  8 18  1  1  0  0  0
  8  3  1  6  0  0  0
  9 20  1  0  0  0  0
  9  8  1  0  0  0  0
 10 11  1  0  0  0  0
 10  9  1  0  0  0  0
 11  7  1  0  0  0  0
 12 27  1  0  0  0  0
 13  2  1  0  0  0  0
 14  4  1  0  0  0  0
 19  9  1  0  0  0  0
 21 10  1  0  0  0  0
 22 10  1  0  0  0  0
 23 11  1  0  0  0  0
 24 11  1  0  0  0  0
 25 12  1  0  0  0  0
 26 12  1  0  0  0  0
M  END
