y01
  Mrv15b2303222209473D          

 76 79  0  0  1  0            999 V2000
   -4.1254   10.1137  -12.7515 C   0  0  0  0  0  0  0  0  0  0  0  0
   -3.7277    8.6401  -12.8581 C   0  0  1  0  0  0  0  0  0  0  0  0
   -2.6252    8.4841  -13.9075 C   0  0  0  0  0  0  0  0  0  0  0  0
   -3.2143    8.1511  -11.5024 C   0  0  2  0  0  0  0  0  0  0  0  0
   -2.8166    6.6775  -11.6090 C   0  0  1  0  0  0  0  0  0  0  0  0
   -2.3032    6.1884  -10.2532 C   0  0  2  0  0  0  0  0  0  0  0  0
   -1.9055    4.7149  -10.3599 C   0  0  1  0  0  0  0  0  0  0  0  0
   -0.8030    4.5588  -11.4092 C   0  0  0  0  0  0  0  0  0  0  0  0
   -1.3840    4.2181   -8.9828 C   0  0  1  0  0  0  0  0  0  0  0  0
   -2.4763    4.3605   -7.8888 C   0  0  2  0  0  0  0  0  0  0  0  0
   -2.1569    3.2995   -6.8075 C   0  0  2  0  0  0  0  0  0  0  0  0
   -0.7808    2.7299   -7.2141 C   0  0  2  0  0  0  0  0  0  0  0  0
   -0.8227    2.7627   -8.7975 C   0  0  1  0  0  0  0  0  0  0  0  0
   -1.6788    1.6565   -9.5286 C   0  0  0  0  0  0  0  0  0  0  0  0
    0.5755    2.5055   -9.4354 C   0  0  2  0  0  0  0  0  0  0  0  0
    1.6662    1.8859   -8.5222 C   0  0  2  0  0  0  0  0  0  0  0  0
    1.2087    1.0525   -7.2641 C   0  0  1  0  0  0  0  0  0  0  0  0
   -0.2804    1.3436   -6.7336 C   0  0  1  0  0  0  0  0  0  0  0  0
   -0.4081    0.9209   -5.2451 C   0  0  2  0  0  0  0  0  0  0  0  0
   -0.1171   -0.6106   -5.1038 C   0  0  2  0  0  0  0  0  0  0  0  0
    1.2319   -1.0195   -5.7692 C   0  0  1  0  0  0  0  0  0  0  0  0
    1.4474   -2.5523   -5.5691 C   0  0  2  0  0  0  0  0  0  0  0  0
    1.5083   -0.5102   -7.2755 C   0  0  1  0  0  0  0  0  0  0  0  0
    0.6365   -1.2144   -8.3791 C   0  0  0  0  0  0  0  0  0  0  0  0
    2.9774   -0.9051   -7.7098 C   0  0  1  0  0  0  0  0  0  0  0  0
    3.7105   -1.9917   -6.8701 C   0  0  2  0  0  0  0  0  0  0  0  0
    2.7343   -3.0481   -6.2789 C   0  0  2  0  0  0  0  0  0  0  0  0
    2.3875   -3.9877   -7.2855 O   0  0  0  0  0  0  0  0  0  0  0  0
   -4.9108   10.2249  -12.0040 H   0  0  0  0  0  0  0  0  0  0  0  0
   -4.4911   10.4621  -13.7174 H   0  0  0  0  0  0  0  0  0  0  0  0
   -3.2575   10.7039  -12.4572 H   0  0  0  0  0  0  0  0  0  0  0  0
   -4.5955    8.0500  -13.1524 H   0  0  0  0  0  0  0  0  0  0  0  0
   -2.3419    7.4343  -13.9834 H   0  0  0  0  0  0  0  0  0  0  0  0
   -2.9910    8.8325  -14.8733 H   0  0  0  0  0  0  0  0  0  0  0  0
   -1.7573    9.0743  -13.6132 H   0  0  0  0  0  0  0  0  0  0  0  0
   -3.9997    8.2622  -10.7548 H   0  0  0  0  0  0  0  0  0  0  0  0
   -2.3464    8.7412  -11.2081 H   0  0  0  0  0  0  0  0  0  0  0  0
   -3.6844    6.0873  -11.9033 H   0  0  0  0  0  0  0  0  0  0  0  0
   -2.0311    6.5663  -12.3566 H   0  0  0  0  0  0  0  0  0  0  0  0
   -3.0886    6.2996   -9.5057 H   0  0  0  0  0  0  0  0  0  0  0  0
   -1.4353    6.7786   -9.9589 H   0  0  0  0  0  0  0  0  0  0  0  0
   -2.7733    4.1247  -10.6541 H   0  0  0  0  0  0  0  0  0  0  0  0
   -0.5197    3.5090  -11.4851 H   0  0  0  0  0  0  0  0  0  0  0  0
   -1.1688    4.9072  -12.3751 H   0  0  0  0  0  0  0  0  0  0  0  0
    0.0649    5.1490  -11.1149 H   0  0  0  0  0  0  0  0  0  0  0  0
   -0.5909    4.9344   -8.7298 H   0  0  0  0  0  0  0  0  0  0  0  0
   -3.4545    4.1536   -8.3230 H   0  0  0  0  0  0  0  0  0  0  0  0
   -2.4410    5.3759   -7.4943 H   0  0  0  0  0  0  0  0  0  0  0  0
   -2.9038    2.5065   -6.8447 H   0  0  0  0  0  0  0  0  0  0  0  0
   -2.1627    3.7102   -5.7978 H   0  0  0  0  0  0  0  0  0  0  0  0
   -0.0637    3.4635   -6.8276 H   0  0  0  0  0  0  0  0  0  0  0  0
   -1.6155    1.8019  -10.6070 H   0  0  0  0  0  0  0  0  0  0  0  0
   -2.7189    1.7338   -9.2120 H   0  0  0  0  0  0  0  0  0  0  0  0
   -1.2931    0.6699   -9.2718 H   0  0  0  0  0  0  0  0  0  0  0  0
    0.9507    3.4305   -9.8733 H   0  0  0  0  0  0  0  0  0  0  0  0
    0.3902    1.8162  -10.2591 H   0  0  0  0  0  0  0  0  0  0  0  0
    2.3627    2.6636   -8.2091 H   0  0  0  0  0  0  0  0  0  0  0  0
    2.2905    1.2405   -9.1401 H   0  0  0  0  0  0  0  0  0  0  0  0
    1.9018    1.4777   -6.5270 H   0  0  0  0  0  0  0  0  0  0  0  0
   -0.9827    0.6646   -7.1882 H   0  0  0  0  0  0  0  0  0  0  0  0
   -1.4175    1.1330   -4.8925 H   0  0  0  0  0  0  0  0  0  0  0  0
    0.3073    1.5108   -4.6722 H   0  0  0  0  0  0  0  0  0  0  0  0
   -0.9313   -1.1782   -5.5545 H   0  0  0  0  0  0  0  0  0  0  0  0
   -0.1228   -0.9004   -4.0531 H   0  0  0  0  0  0  0  0  0  0  0  0
    1.9823   -0.5370   -5.1211 H   0  0  0  0  0  0  0  0  0  0  0  0
    0.5857   -3.0942   -5.9587 H   0  0  0  0  0  0  0  0  0  0  0  0
    1.5152   -2.7271   -4.4953 H   0  0  0  0  0  0  0  0  0  0  0  0
    0.8915   -0.8078   -9.3578 H   0  0  0  0  0  0  0  0  0  0  0  0
   -0.4196   -1.0369   -8.1759 H   0  0  0  0  0  0  0  0  0  0  0  0
    0.8335   -2.2864   -8.3685 H   0  0  0  0  0  0  0  0  0  0  0  0
    2.9802   -1.1947   -8.7606 H   0  0  0  0  0  0  0  0  0  0  0  0
    3.6026   -0.0161   -7.6267 H   0  0  0  0  0  0  0  0  0  0  0  0
    4.2627   -1.5141   -6.0607 H   0  0  0  0  0  0  0  0  0  0  0  0
    4.4733   -2.4822   -7.4747 H   0  0  0  0  0  0  0  0  0  0  0  0
    3.2931   -3.6568   -5.5681 H   0  0  0  0  0  0  0  0  0  0  0  0
    3.1976   -4.4355   -7.6074 H   0  0  0  0  0  0  0  0  0  0  0  0
  1 29  1  0  0  0  0
  1 30  1  0  0  0  0
  1 31  1  0  0  0  0
  2  1  1  0  0  0  0
  2 32  1  0  0  0  0
  3  2  1  0  0  0  0
  3 33  1  0  0  0  0
  3 34  1  0  0  0  0
  3 35  1  0  0  0  0
  4  2  1  0  0  0  0
  4 36  1  0  0  0  0
  4 37  1  0  0  0  0
  5  4  1  0  0  0  0
  5 38  1  0  0  0  0
  5 39  1  0  0  0  0
  6  5  1  0  0  0  0
  6 40  1  0  0  0  0
  6 41  1  0  0  0  0
  7  8  1  0  0  0  0
  7  6  1  0  0  0  0
  7 42  1  0  0  0  0
  8 43  1  0  0  0  0
  8 44  1  0  0  0  0
  8 45  1  0  0  0  0
  9 10  1  0  0  0  0
  9  7  1  0  0  0  0
  9 46  1  0  0  0  0
 10 47  1  0  0  0  0
 10 48  1  0  0  0  0
 11 10  1  0  0  0  0
 11 49  1  0  0  0  0
 11 50  1  0  0  0  0
 12 13  1  0  0  0  0
 12 11  1  0  0  0  0
 12 51  1  0  0  0  0
 13 14  1  0  0  0  0
 13  9  1  0  0  0  0
 14 52  1  0  0  0  0
 14 53  1  0  0  0  0
 14 54  1  0  0  0  0
 13 15  1  0  0  0  0
 15 55  1  0  0  0  0
 15 56  1  0  0  0  0
 16 15  1  0  0  0  0
 16 57  1  0  0  0  0
 16 58  1  0  0  0  0
 17 16  1  0  0  0  0
 17 18  1  0  0  0  0
 17 59  1  0  0  0  0
 18 12  1  0  0  0  0
 18 60  1  0  0  0  0
 18 19  1  0  0  0  0
 19 61  1  0  0  0  0
 19 62  1  0  0  0  0
 20 19  1  0  0  0  0
 20 63  1  0  0  0  0
 20 64  1  0  0  0  0
 21 23  1  0  0  0  0
 21 20  1  0  0  0  0
 21 65  1  0  0  0  0
 22 21  1  0  0  0  0
 22 66  1  0  0  0  0
 22 67  1  0  0  0  0
 23 24  1  0  0  0  0
 23 17  1  0  0  0  0
 24 68  1  0  0  0  0
 24 69  1  0  0  0  0
 24 70  1  0  0  0  0
 23 25  1  0  0  0  0
 25 71  1  0  0  0  0
 25 72  1  0  0  0  0
 26 25  1  0  0  0  0
 26 73  1  0  0  0  0
 26 74  1  0  0  0  0
 27 26  1  0  0  0  0
 27 22  1  0  0  0  0
 27 75  1  0  0  0  0
 27 28  1  0  0  0  0
 28 76  1  0  0  0  0
M  END
