y01
  MJ220300                      

 76 79  0  0  1  0  0  0  0  0999 V2000
   70.6561   59.0714    0.0000 C   0  0  0  0  0  0  0  0  0  0  0  0
   71.3706   59.4839    0.0000 C   0  0  0  0  0  0  0  0  0  0  0  0
   71.3706   60.3089    0.0000 C   0  0  0  0  0  0  0  0  0  0  0  0
   72.0849   59.0714    0.0000 C   0  0  0  0  0  0  0  0  0  0  0  0
   72.7995   59.4839    0.0000 C   0  0  0  0  0  0  0  0  0  0  0  0
   73.5140   59.0714    0.0000 C   0  0  0  0  0  0  0  0  0  0  0  0
   74.2285   59.4839    0.0000 C   0  0  0  0  0  0  0  0  0  0  0  0
   74.2285   60.3089    0.0000 C   0  0  0  0  0  0  0  0  0  0  0  0
   74.9429   59.0714    0.0000 C   0  0  0  0  0  0  0  0  0  0  0  0
   75.0292   58.2509    0.0000 C   0  0  0  0  0  0  0  0  0  0  0  0
   75.8361   58.0793    0.0000 C   0  0  0  0  0  0  0  0  0  0  0  0
   76.2486   58.7938    0.0000 C   0  0  0  0  0  0  0  0  0  0  0  0
   75.6966   59.4069    0.0000 C   0  0  0  0  0  0  0  0  0  0  0  0
   75.0835   59.9589    0.0000 C   0  0  0  0  0  0  0  0  0  0  0  0
   75.9515   60.1915    0.0000 C   0  0  0  0  0  0  0  0  0  0  0  0
   76.7585   60.3631    0.0000 C   0  0  0  0  0  0  0  0  0  0  0  0
   77.3105   59.7500    0.0000 C   0  0  0  0  0  0  0  0  0  0  0  0
   77.0556   58.9653    0.0000 C   0  0  0  0  0  0  0  0  0  0  0  0
   77.6076   58.3522    0.0000 C   0  0  0  0  0  0  0  0  0  0  0  0
   78.4145   58.5238    0.0000 C   0  0  0  0  0  0  0  0  0  0  0  0
   78.6696   59.3084    0.0000 C   0  0  0  0  0  0  0  0  0  0  0  0
   79.4765   59.4799    0.0000 C   0  0  0  0  0  0  0  0  0  0  0  0
   78.1175   59.9215    0.0000 C   0  0  0  0  0  0  0  0  0  0  0  0
   77.5655   60.5346    0.0000 C   0  0  0  0  0  0  0  0  0  0  0  0
   78.3725   60.7061    0.0000 C   0  0  0  0  0  0  0  0  0  0  0  0
   79.1794   60.8776    0.0000 C   0  0  0  0  0  0  0  0  0  0  0  0
   79.7315   60.2645    0.0000 C   0  0  0  0  0  0  0  0  0  0  0  0
   80.5384   60.4361    0.0000 O   0  0  0  0  0  0  0  0  0  0  0  0
   70.2436   59.7858    0.0000 H   0  0  0  0  0  0  0  0  0  0  0  0
   69.9415   58.6589    0.0000 H   0  0  0  0  0  0  0  0  0  0  0  0
   71.0686   58.3569    0.0000 H   0  0  0  0  0  0  0  0  0  0  0  0
   70.6561   59.8964    0.0000 H   0  0  0  0  0  0  0  0  0  0  0  0
   72.1675   60.0953    0.0000 H   0  0  0  0  0  0  0  0  0  0  0  0
   71.7830   61.0233    0.0000 H   0  0  0  0  0  0  0  0  0  0  0  0
   70.7872   60.8922    0.0000 H   0  0  0  0  0  0  0  0  0  0  0  0
   71.7148   58.3341    0.0000 H   0  0  0  0  0  0  0  0  0  0  0  0
   72.4553   58.3341    0.0000 H   0  0  0  0  0  0  0  0  0  0  0  0
   73.2963   60.1425    0.0000 H   0  0  0  0  0  0  0  0  0  0  0  0
   72.7995   58.6589    0.0000 H   0  0  0  0  0  0  0  0  0  0  0  0
   73.6573   58.2589    0.0000 H   0  0  0  0  0  0  0  0  0  0  0  0
   74.1460   58.5411    0.0000 H   0  0  0  0  0  0  0  0  0  0  0  0
   73.5140   59.8964    0.0000 H   0  0  0  0  0  0  0  0  0  0  0  0
   74.9368   60.7318    0.0000 H   0  0  0  0  0  0  0  0  0  0  0  0
   74.3157   61.1292    0.0000 H   0  0  0  0  0  0  0  0  0  0  0  0
   73.6249   60.8712    0.0000 H   0  0  0  0  0  0  0  0  0  0  0  0
   75.6574   58.6589    0.0000 H   0  0  0  0  0  0  0  0  0  0  0  0
   74.5468   57.5816    0.0000 H   0  0  0  0  0  0  0  0  0  0  0  0
   75.1096   57.4298    0.0000 H   0  0  0  0  0  0  0  0  0  0  0  0
   75.7786   57.2564    0.0000 H   0  0  0  0  0  0  0  0  0  0  0  0
   76.4862   57.5714    0.0000 H   0  0  0  0  0  0  0  0  0  0  0  0
   76.5036   59.5784    0.0000 H   0  0  0  0  0  0  0  0  0  0  0  0
   74.2770   59.7851    0.0000 H   0  0  0  0  0  0  0  0  0  0  0  0
   74.5165   59.3597    0.0000 H   0  0  0  0  0  0  0  0  0  0  0  0
   75.5222   60.6576    0.0000 H   0  0  0  0  0  0  0  0  0  0  0  0
   76.4569   60.8435    0.0000 H   0  0  0  0  0  0  0  0  0  0  0  0
   75.9165   61.0158    0.0000 H   0  0  0  0  0  0  0  0  0  0  0  0
   77.3030   60.9829    0.0000 H   0  0  0  0  0  0  0  0  0  0  0  0
   76.8246   61.1854    0.0000 H   0  0  0  0  0  0  0  0  0  0  0  0
   77.8626   59.1369    0.0000 H   0  0  0  0  0  0  0  0  0  0  0  0
   76.8007   58.1807    0.0000 H   0  0  0  0  0  0  0  0  0  0  0  0
   77.4928   57.5353    0.0000 H   0  0  0  0  0  0  0  0  0  0  0  0
   78.0448   57.6526    0.0000 H   0  0  0  0  0  0  0  0  0  0  0  0
   79.0367   57.9819    0.0000 H   0  0  0  0  0  0  0  0  0  0  0  0
   79.2396   58.5246    0.0000 H   0  0  0  0  0  0  0  0  0  0  0  0
   78.9245   60.0930    0.0000 H   0  0  0  0  0  0  0  0  0  0  0  0
   79.6947   58.6843    0.0000 H   0  0  0  0  0  0  0  0  0  0  0  0
   80.2450   59.1798    0.0000 H   0  0  0  0  0  0  0  0  0  0  0  0
   78.2058   61.0548    0.0000 H   0  0  0  0  0  0  0  0  0  0  0  0
   77.8987   61.2893    0.0000 H   0  0  0  0  0  0  0  0  0  0  0  0
   77.5185   61.3582    0.0000 H   0  0  0  0  0  0  0  0  0  0  0  0
   78.9402   61.3047    0.0000 H   0  0  0  0  0  0  0  0  0  0  0  0
   78.5010   61.5210    0.0000 H   0  0  0  0  0  0  0  0  0  0  0  0
   79.9969   60.9889    0.0000 H   0  0  0  0  0  0  0  0  0  0  0  0
   79.5475   61.6160    0.0000 H   0  0  0  0  0  0  0  0  0  0  0  0
   80.2835   59.6514    0.0000 H   0  0  0  0  0  0  0  0  0  0  0  0
   81.3416   60.6245    0.0000 H   0  0  0  0  0  0  0  0  0  0  0  0
  1 29  1  0  0  0  0
  1 30  1  0  0  0  0
  1 31  1  0  0  0  0
  2  1  1  0  0  0  0
  2 32  1  0  0  0  0
  3  2  1  0  0  0  0
  3 33  1  0  0  0  0
  3 34  1  0  0  0  0
  3 35  1  0  0  0  0
  4  2  1  0  0  0  0
  4 36  1  0  0  0  0
  4 37  1  0  0  0  0
  5  4  1  0  0  0  0
  5 38  1  0  0  0  0
  5 39  1  0  0  0  0
  6  5  1  0  0  0  0
  6 40  1  0  0  0  0
  6 41  1  0  0  0  0
  7  8  1  1  0  0  0
  7  6  1  0  0  0  0
  7 42  1  6  0  0  0
  8 43  1  0  0  0  0
  8 44  1  0  0  0  0
  8 45  1  0  0  0  0
  9 10  1  0  0  0  0
  9  7  1  1  0  0  0
  9 46  1  1  0  0  0
 10 47  1  0  0  0  0
 10 48  1  0  0  0  0
 11 10  1  0  0  0  0
 11 49  1  0  0  0  0
 11 50  1  0  0  0  0
 12 13  1  0  0  0  0
 12 11  1  1  0  0  0
 12 51  1  1  0  0  0
 13 14  1  6  0  0  0
 13  9  1  0  0  0  0
 14 52  1  0  0  0  0
 14 53  1  0  0  0  0
 14 54  1  0  0  0  0
 13 15  1  1  0  0  0
 15 55  1  0  0  0  0
 15 56  1  0  0  0  0
 16 15  1  0  0  0  0
 16 57  1  0  0  0  0
 16 58  1  0  0  0  0
 17 16  1  1  0  0  0
 17 18  1  0  0  0  0
 17 59  1  1  0  0  0
 18 12  1  0  0  0  0
 18 60  1  6  0  0  0
 18 19  1  1  0  0  0
 19 61  1  0  0  0  0
 19 62  1  0  0  0  0
 20 19  1  0  0  0  0
 20 63  1  0  0  0  0
 20 64  1  0  0  0  0
 21 23  1  0  0  0  0
 21 20  1  1  0  0  0
 21 65  1  1  0  0  0
 22 21  1  0  0  0  0
 22 66  1  0  0  0  0
 22 67  1  0  0  0  0
 23 24  1  6  0  0  0
 23 17  1  0  0  0  0
 24 68  1  0  0  0  0
 24 69  1  0  0  0  0
 24 70  1  0  0  0  0
 23 25  1  1  0  0  0
 25 71  1  0  0  0  0
 25 72  1  0  0  0  0
 26 25  1  0  0  0  0
 26 73  1  0  0  0  0
 26 74  1  0  0  0  0
 27 26  1  0  0  0  0
 27 22  1  0  0  0  0
 27 75  1  1  0  0  0
 27 28  1  6  0  0  0
 28 76  1  0  0  0  0
M  END
