@<TRIPOS>MOLECULE
y01
 76 79 0 0 0
SMALL
GASTEIGER

@<TRIPOS>ATOM
      1 C          -4.1254   10.1137  -12.7515 C.3     1  UNL1       -0.0627
      2 C          -3.7277    8.6401  -12.8581 C.3     1  UNL1       -0.0467
      3 C          -2.6252    8.4841  -13.9075 C.3     1  UNL1       -0.0627
      4 C          -3.2143    8.1511  -11.5024 C.3     1  UNL1       -0.0507
      5 C          -2.8166    6.6775  -11.6090 C.3     1  UNL1       -0.0526
      6 C          -2.3032    6.1884  -10.2532 C.3     1  UNL1       -0.0502
      7 C          -1.9055    4.7149  -10.3599 C.3     1  UNL1       -0.0405
      8 C          -0.8030    4.5588  -11.4092 C.3     1  UNL1       -0.0621
      9 C          -1.3840    4.2181   -8.9828 C.3     1  UNL1       -0.0328
     10 C          -2.4763    4.3605   -7.8888 C.3     1  UNL1       -0.0492
     11 C          -2.1569    3.2995   -6.8075 C.3     1  UNL1       -0.0492
     12 C          -0.7808    2.7299   -7.2141 C.3     1  UNL1       -0.0323
     13 C          -0.8227    2.7627   -8.7975 C.3     1  UNL1       -0.0259
     14 C          -1.6788    1.6565   -9.5286 C.3     1  UNL1       -0.0590
     15 C           0.5755    2.5055   -9.4354 C.3     1  UNL1       -0.0468
     16 C           1.6662    1.8859   -8.5222 C.3     1  UNL1       -0.0489
     17 C           1.2087    1.0525   -7.2641 C.3     1  UNL1       -0.0323
     18 C          -0.2804    1.3436   -6.7336 C.3     1  UNL1       -0.0344
     19 C          -0.4081    0.9209   -5.2451 C.3     1  UNL1       -0.0494
     20 C          -0.1171   -0.6106   -5.1038 C.3     1  UNL1       -0.0494
     21 C           1.2319   -1.0195   -5.7692 C.3     1  UNL1       -0.0330
     22 C           1.4474   -2.5523   -5.5691 C.3     1  UNL1       -0.0235
     23 C           1.5083   -0.5102   -7.2755 C.3     1  UNL1       -0.0260
     24 C           0.6365   -1.2144   -8.3791 C.3     1  UNL1       -0.0590
     25 C           2.9774   -0.9051   -7.7098 C.3     1  UNL1       -0.0448
     26 C           3.7105   -1.9917   -6.8701 C.3     1  UNL1       -0.0263
     27 C           2.7343   -3.0481   -6.2789 C.3     1  UNL1        0.0555
     28 O           2.3875   -3.9877   -7.2855 O.3     1  UNL1       -0.3918
     29 H          -4.9108   10.2249  -12.0040 H       1  UNL1        0.0232
     30 H          -4.4911   10.4621  -13.7174 H       1  UNL1        0.0232
     31 H          -3.2575   10.7039  -12.4572 H       1  UNL1        0.0232
     32 H          -4.5955    8.0500  -13.1524 H       1  UNL1        0.0295
     33 H          -2.3419    7.4343  -13.9834 H       1  UNL1        0.0232
     34 H          -2.9910    8.8325  -14.8733 H       1  UNL1        0.0232
     35 H          -1.7573    9.0743  -13.6132 H       1  UNL1        0.0232
     36 H          -3.9997    8.2622  -10.7548 H       1  UNL1        0.0268
     37 H          -2.3464    8.7412  -11.2081 H       1  UNL1        0.0268
     38 H          -3.6844    6.0873  -11.9033 H       1  UNL1        0.0265
     39 H          -2.0311    6.5663  -12.3566 H       1  UNL1        0.0265
     40 H          -3.0886    6.2996   -9.5057 H       1  UNL1        0.0268
     41 H          -1.4353    6.7786   -9.9589 H       1  UNL1        0.0268
     42 H          -2.7733    4.1247  -10.6541 H       1  UNL1        0.0301
     43 H          -0.5197    3.5090  -11.4851 H       1  UNL1        0.0233
     44 H          -1.1688    4.9072  -12.3751 H       1  UNL1        0.0233
     45 H           0.0649    5.1490  -11.1149 H       1  UNL1        0.0233
     46 H          -0.5909    4.9344   -8.7298 H       1  UNL1        0.0309
     47 H          -3.4545    4.1536   -8.3230 H       1  UNL1        0.0268
     48 H          -2.4410    5.3759   -7.4943 H       1  UNL1        0.0268
     49 H          -2.9038    2.5065   -6.8447 H       1  UNL1        0.0268
     50 H          -2.1627    3.7102   -5.7978 H       1  UNL1        0.0268
     51 H          -0.0637    3.4635   -6.8276 H       1  UNL1        0.0309
     52 H          -1.6155    1.8019  -10.6070 H       1  UNL1        0.0235
     53 H          -2.7189    1.7338   -9.2120 H       1  UNL1        0.0235
     54 H          -1.2931    0.6699   -9.2718 H       1  UNL1        0.0235
     55 H           0.9507    3.4305   -9.8733 H       1  UNL1        0.0271
     56 H           0.3902    1.8162  -10.2591 H       1  UNL1        0.0271
     57 H           2.3627    2.6636   -8.2091 H       1  UNL1        0.0268
     58 H           2.2905    1.2405   -9.1401 H       1  UNL1        0.0268
     59 H           1.9018    1.4777   -6.5270 H       1  UNL1        0.0309
     60 H          -0.9827    0.6646   -7.1882 H       1  UNL1        0.0306
     61 H          -1.4175    1.1330   -4.8925 H       1  UNL1        0.0268
     62 H           0.3073    1.5108   -4.6722 H       1  UNL1        0.0268
     63 H          -0.9313   -1.1782   -5.5545 H       1  UNL1        0.0268
     64 H          -0.1228   -0.9004   -4.0531 H       1  UNL1        0.0268
     65 H           1.9823   -0.5370   -5.1211 H       1  UNL1        0.0307
     66 H           0.5857   -3.0942   -5.9587 H       1  UNL1        0.0293
     67 H           1.5152   -2.7271   -4.4953 H       1  UNL1        0.0293
     68 H           0.8915   -0.8078   -9.3578 H       1  UNL1        0.0235
     69 H          -0.4196   -1.0369   -8.1759 H       1  UNL1        0.0235
     70 H           0.8335   -2.2864   -8.3685 H       1  UNL1        0.0235
     71 H           2.9802   -1.1947   -8.7606 H       1  UNL1        0.0271
     72 H           3.6026   -0.0161   -7.6267 H       1  UNL1        0.0271
     73 H           4.2627   -1.5141   -6.0607 H       1  UNL1        0.0290
     74 H           4.4733   -2.4822   -7.4747 H       1  UNL1        0.0290
     75 H           3.2931   -3.6568   -5.5681 H       1  UNL1        0.0593
     76 H           3.1976   -4.4355   -7.6074 H       1  UNL1        0.2098
@<TRIPOS>BOND
     1     1    29    1
     2     1    30    1
     3     1    31    1
     4     2     1    1
     5     2    32    1
     6     3     2    1
     7     3    33    1
     8     3    34    1
     9     3    35    1
    10     4     2    1
    11     4    36    1
    12     4    37    1
    13     5     4    1
    14     5    38    1
    15     5    39    1
    16     6     5    1
    17     6    40    1
    18     6    41    1
    19     7     8    1
    20     7     6    1
    21     7    42    1
    22     8    43    1
    23     8    44    1
    24     8    45    1
    25     9    10    1
    26     9     7    1
    27     9    46    1
    28    10    47    1
    29    10    48    1
    30    11    10    1
    31    11    49    1
    32    11    50    1
    33    12    13    1
    34    12    11    1
    35    12    51    1
    36    13    14    1
    37    13     9    1
    38    14    52    1
    39    14    53    1
    40    14    54    1
    41    13    15    1
    42    15    55    1
    43    15    56    1
    44    16    15    1
    45    16    57    1
    46    16    58    1
    47    17    16    1
    48    17    18    1
    49    17    59    1
    50    18    12    1
    51    18    60    1
    52    18    19    1
    53    19    61    1
    54    19    62    1
    55    20    19    1
    56    20    63    1
    57    20    64    1
    58    21    23    1
    59    21    20    1
    60    21    65    1
    61    22    21    1
    62    22    66    1
    63    22    67    1
    64    23    24    1
    65    23    17    1
    66    24    68    1
    67    24    69    1
    68    24    70    1
    69    23    25    1
    70    25    71    1
    71    25    72    1
    72    26    25    1
    73    26    73    1
    74    26    74    1
    75    27    26    1
    76    27    22    1
    77    27    75    1
    78    27    28    1
    79    28    76    1
