Y01
  -OEChem-03112220393D

 85 88  0     1  0  0  0  0  0999 V2000
   -9.9630   -0.2680   -2.4010 C   0  0  0  0  0  0  0  0  0  0  0  0
  -10.2280    0.2480   -0.9850 C   0  0  0  0  0  0  0  0  0  0  0  0
  -11.6130   -0.2140   -0.5260 C   0  0  0  0  0  0  0  0  0  0  0  0
   -9.1650   -0.3050   -0.0340 C   0  0  0  0  0  0  0  0  0  0  0  0
   -7.7950    0.2570   -0.4180 C   0  0  0  0  0  0  0  0  0  0  0  0
   -6.7320   -0.2950    0.5330 C   0  0  0  0  0  0  0  0  0  0  0  0
   -5.3620    0.2670    0.1480 C   0  0  1  0  0  0  0  0  0  0  0  0
   -5.3520    1.7810    0.3660 C   0  0  0  0  0  0  0  0  0  0  0  0
   -4.2820   -0.3800    1.0190 C   0  0  1  0  0  0  0  0  0  0  0  0
   -4.2510   -1.9110    0.7850 C   0  0  0  0  0  0  0  0  0  0  0  0
   -2.8080   -2.2550    0.3240 C   0  0  0  0  0  0  0  0  0  0  0  0
   -1.9810   -1.0970    0.8950 C   0  0  2  0  0  0  0  0  0  0  0  0
   -2.9010    0.1190    0.6060 C   0  0  1  0  0  0  0  0  0  0  0  0
   -2.8890    0.4350   -0.8910 C   0  0  0  0  0  0  0  0  0  0  0  0
   -2.3460    1.2940    1.3890 C   0  0  0  0  0  0  0  0  0  0  0  0
   -0.9620    1.6130    0.8030 C   0  0  0  0  0  0  0  0  0  0  0  0
   -0.0300    0.4060    0.8640 C   0  0  1  0  0  0  0  0  0  0  0  0
   -0.6540   -0.8320    0.2070 C   0  0  1  0  0  0  0  0  0  0  0  0
    0.2870   -2.0210    0.4370 C   0  0  0  0  0  0  0  0  0  0  0  0
    1.6500   -1.6820   -0.0930 C   0  0  0  0  0  0  0  0  0  0  0  0
    2.0920   -0.4630   -0.1880 C   0  0  0  0  0  0  0  0  0  0  0  0
    3.4930   -0.2450   -0.7320 C   0  0  0  0  0  0  0  0  0  0  0  0
    1.2960    0.7470    0.2050 C   0  0  1  0  0  0  0  0  0  0  0  0
    1.0060    1.5590   -1.0590 C   0  0  0  0  0  0  0  0  0  0  0  0
    2.1340    1.6270    1.1370 C   0  0  0  0  0  0  0  0  0  0  0  0
    3.4720    1.9460    0.4680 C   0  0  0  0  0  0  0  0  0  0  0  0
    4.2580    0.6520    0.2450 C   0  0  2  0  0  0  0  0  0  0  0  0
    5.5630    0.9680   -0.3070 O   0  0  0  0  0  0  0  0  0  0  0  0
    6.5700    0.1320   -0.0080 C   0  0  0  0  0  0  0  0  0  0  0  0
    6.3670   -0.8320    0.6920 O   0  0  0  0  0  0  0  0  0  0  0  0
    7.9530    0.3950   -0.5460 C   0  0  0  0  0  0  0  0  0  0  0  0
    8.9060   -0.6990   -0.0600 C   0  0  0  0  0  0  0  0  0  0  0  0
   10.2890   -0.4350   -0.5970 C   0  0  0  0  0  0  0  0  0  0  0  0
   11.2950   -1.2710   -0.2990 O   0  0  0  0  0  0  0  0  0  0  0  0
   10.4910    0.5290   -1.2970 O   0  0  0  0  0  0  0  0  0  0  0  0
   -8.9760    0.0610   -2.7280 H   0  0  0  0  0  0  0  0  0  0  0  0
  -10.0020   -1.3570   -2.4050 H   0  0  0  0  0  0  0  0  0  0  0  0
  -10.7200    0.1260   -3.0790 H   0  0  0  0  0  0  0  0  0  0  0  0
  -10.1890    1.3370   -0.9820 H   0  0  0  0  0  0  0  0  0  0  0  0
  -11.6520   -1.3030   -0.5300 H   0  0  0  0  0  0  0  0  0  0  0  0
  -11.8020    0.1530    0.4830 H   0  0  0  0  0  0  0  0  0  0  0  0
  -12.3700    0.1800   -1.2040 H   0  0  0  0  0  0  0  0  0  0  0  0
   -9.4040   -0.0110    0.9880 H   0  0  0  0  0  0  0  0  0  0  0  0
   -9.1440   -1.3920   -0.1040 H   0  0  0  0  0  0  0  0  0  0  0  0
   -7.5560   -0.0360   -1.4410 H   0  0  0  0  0  0  0  0  0  0  0  0
   -7.8150    1.3450   -0.3480 H   0  0  0  0  0  0  0  0  0  0  0  0
   -6.9710   -0.0010    1.5550 H   0  0  0  0  0  0  0  0  0  0  0  0
   -6.7110   -1.3830    0.4630 H   0  0  0  0  0  0  0  0  0  0  0  0
   -5.1610    0.0490   -0.9010 H   0  0  0  0  0  0  0  0  0  0  0  0
   -4.3760    2.1820    0.0920 H   0  0  0  0  0  0  0  0  0  0  0  0
   -6.1210    2.2420   -0.2540 H   0  0  0  0  0  0  0  0  0  0  0  0
   -5.5520    1.9990    1.4150 H   0  0  0  0  0  0  0  0  0  0  0  0
   -4.4650   -0.1620    2.0710 H   0  0  0  0  0  0  0  0  0  0  0  0
   -4.4830   -2.4350    1.7120 H   0  0  0  0  0  0  0  0  0  0  0  0
   -4.9670   -2.1860    0.0100 H   0  0  0  0  0  0  0  0  0  0  0  0
   -2.4840   -3.2050    0.7480 H   0  0  0  0  0  0  0  0  0  0  0  0
   -2.7450   -2.2740   -0.7630 H   0  0  0  0  0  0  0  0  0  0  0  0
   -1.8440   -1.2230    1.9690 H   0  0  0  0  0  0  0  0  0  0  0  0
   -0.8090   -0.6570   -0.8570 H   0  0  0  0  0  0  0  0  0  0  0  0
   -3.6110    1.2240   -1.1020 H   0  0  0  0  0  0  0  0  0  0  0  0
   -1.8930    0.7660   -1.1850 H   0  0  0  0  0  0  0  0  0  0  0  0
   -3.1550   -0.4600   -1.4530 H   0  0  0  0  0  0  0  0  0  0  0  0
   -3.0030    2.1570    1.2800 H   0  0  0  0  0  0  0  0  0  0  0  0
   -2.2520    1.0270    2.4420 H   0  0  0  0  0  0  0  0  0  0  0  0
   -1.0780    1.9200   -0.2360 H   0  0  0  0  0  0  0  0  0  0  0  0
   -0.5180    2.4330    1.3670 H   0  0  0  0  0  0  0  0  0  0  0  0
    0.1670    0.1770    1.9120 H   0  0  0  0  0  0  0  0  0  0  0  0
    0.3540   -2.2310    1.5040 H   0  0  0  0  0  0  0  0  0  0  0  0
   -0.0990   -2.8970   -0.0850 H   0  0  0  0  0  0  0  0  0  0  0  0
    2.2930   -2.4890   -0.4110 H   0  0  0  0  0  0  0  0  0  0  0  0
    4.0030   -1.2040   -0.8260 H   0  0  0  0  0  0  0  0  0  0  0  0
    3.4370    0.2380   -1.7080 H   0  0  0  0  0  0  0  0  0  0  0  0
    4.3810    0.1330    1.1950 H   0  0  0  0  0  0  0  0  0  0  0  0
    0.4760    2.4730   -0.7900 H   0  0  0  0  0  0  0  0  0  0  0  0
    1.9450    1.8150   -1.5500 H   0  0  0  0  0  0  0  0  0  0  0  0
    0.3910    0.9680   -1.7380 H   0  0  0  0  0  0  0  0  0  0  0  0
    1.5990    2.5540    1.3400 H   0  0  0  0  0  0  0  0  0  0  0  0
    2.3130    1.0980    2.0730 H   0  0  0  0  0  0  0  0  0  0  0  0
    3.2920    2.4310   -0.4910 H   0  0  0  0  0  0  0  0  0  0  0  0
    4.0480    2.6140    1.1090 H   0  0  0  0  0  0  0  0  0  0  0  0
    7.9250    0.3950   -1.6350 H   0  0  0  0  0  0  0  0  0  0  0  0
    8.3020    1.3650   -0.1910 H   0  0  0  0  0  0  0  0  0  0  0  0
    8.9330   -0.6990    1.0300 H   0  0  0  0  0  0  0  0  0  0  0  0
    8.5570   -1.6680   -0.4140 H   0  0  0  0  0  0  0  0  0  0  0  0
   12.1650   -1.0610   -0.6660 H   0  0  0  0  0  0  0  0  0  0  0  0
  1  2  1  0  0  0  0
  2  3  1  0  0  0  0
  2  4  1  0  0  0  0
  4  5  1  0  0  0  0
  5  6  1  0  0  0  0
  6  7  1  0  0  0  0
  7  8  1  0  0  0  0
  7  9  1  0  0  0  0
  9 10  1  0  0  0  0
  9 13  1  0  0  0  0
 10 11  1  0  0  0  0
 11 12  1  0  0  0  0
 12 13  1  0  0  0  0
 12 18  1  0  0  0  0
 13 14  1  0  0  0  0
 13 15  1  0  0  0  0
 15 16  1  0  0  0  0
 16 17  1  0  0  0  0
 17 18  1  0  0  0  0
 17 23  1  0  0  0  0
 18 19  1  0  0  0  0
 19 20  1  0  0  0  0
 20 21  2  0  0  0  0
 21 22  1  0  0  0  0
 21 23  1  0  0  0  0
 22 27  1  0  0  0  0
 23 24  1  0  0  0  0
 23 25  1  0  0  0  0
 25 26  1  0  0  0  0
 26 27  1  0  0  0  0
 27 28  1  0  0  0  0
 28 29  1  0  0  0  0
 29 30  2  0  0  0  0
 29 31  1  0  0  0  0
 31 32  1  0  0  0  0
 32 33  1  0  0  0  0
 33 34  1  0  0  0  0
 33 35  2  0  0  0  0
  1 36  1  0  0  0  0
  1 37  1  0  0  0  0
  1 38  1  0  0  0  0
  2 39  1  0  0  0  0
  3 40  1  0  0  0  0
  3 41  1  0  0  0  0
  3 42  1  0  0  0  0
  4 43  1  0  0  0  0
  4 44  1  0  0  0  0
  5 45  1  0  0  0  0
  5 46  1  0  0  0  0
  6 47  1  0  0  0  0
  6 48  1  0  0  0  0
  7 49  1  0  0  0  0
  8 50  1  0  0  0  0
  8 51  1  0  0  0  0
  8 52  1  0  0  0  0
  9 53  1  0  0  0  0
 10 54  1  0  0  0  0
 10 55  1  0  0  0  0
 11 56  1  0  0  0  0
 11 57  1  0  0  0  0
 12 58  1  0  0  0  0
 18 59  1  0  0  0  0
 14 60  1  0  0  0  0
 14 61  1  0  0  0  0
 14 62  1  0  0  0  0
 15 63  1  0  0  0  0
 15 64  1  0  0  0  0
 16 65  1  0  0  0  0
 16 66  1  0  0  0  0
 17 67  1  0  0  0  0
 19 68  1  0  0  0  0
 19 69  1  0  0  0  0
 20 70  1  0  0  0  0
 22 71  1  0  0  0  0
 22 72  1  0  0  0  0
 27 73  1  0  0  0  0
 24 74  1  0  0  0  0
 24 75  1  0  0  0  0
 24 76  1  0  0  0  0
 25 77  1  0  0  0  0
 25 78  1  0  0  0  0
 26 79  1  0  0  0  0
 26 80  1  0  0  0  0
 31 81  1  0  0  0  0
 31 82  1  0  0  0  0
 32 83  1  0  0  0  0
 32 84  1  0  0  0  0
 34 85  1  0  0  0  0
M  END
> <OPENEYE_ISO_SMILES>
C[C@H](CCCC(C)C)[C@H]1CC[C@@H]2[C@@]1(CC[C@H]3[C@H]2CC=C4[C@@]3(CC[C@@H](C4)OC(=O)CCC(=O)O)C)C

> <OPENEYE_INCHI>
InChI=1S/C31H50O4/c1-20(2)7-6-8-21(3)25-11-12-26-24-10-9-22-19-23(35-29(34)14-13-28(32)33)15-17-30(22,4)27(24)16-18-31(25,26)5/h9,20-21,23-27H,6-8,10-19H2,1-5H3,(H,32,33)/t21-,23+,24+,25-,26+,27+,30+,31-/m1/s1

> <OPENEYE_INCHIKEY>
WLNARFZDISHUGS-MIXBDBMTSA-N

> <FORMULA>
C31H50O4

$$$$
