y01
 OpenBabel03222209473D

 76 79  0  0  1  0  0  0  0  0999 V2000
  144.0750  111.8000  113.3670 C   0  0  0  0  0  0  0  0  0  0  0  0
  143.6920  112.4770  112.0450 C   0  0  0  0  0  0  0  0  0  0  0  0
  144.9630  112.8030  111.2470 C   0  0  0  0  0  0  0  0  0  0  0  0
  142.7880  111.5180  111.2100 C   0  0  0  0  0  0  0  0  0  0  0  0
  142.2720  112.2640  109.9510 C   0  0  0  0  0  0  0  0  0  0  0  0
  141.4290  111.2850  109.0780 C   0  0  0  0  0  0  0  0  0  0  0  0
  142.1330  111.1330  107.6250 C   0  0  1  0  0  0  0  0  0  0  0  0
  143.4640  110.3170  107.8050 C   0  0  0  0  0  0  0  0  0  0  0  0
  141.3260  110.4780  106.7350 C   0  0  1  0  0  0  0  0  0  0  0  0
  139.7600  110.5170  107.1490 C   0  0  0  0  0  0  0  0  0  0  0  0
  138.8720  110.4810  105.5740 C   0  0  0  0  0  0  0  0  0  0  0  0
  140.1230  110.4790  104.4100 C   0  0  2  0  0  0  0  0  0  0  0  0
  141.3460  111.2560  105.2070 C   0  0  1  0  0  0  0  0  0  0  0  0
  140.8470  112.6880  105.5310 C   0  0  0  0  0  0  0  0  0  0  0  0
  142.3910  111.3930  104.5500 C   0  0  0  0  0  0  0  0  0  0  0  0
  142.2500  111.5900  103.4090 C   0  0  0  0  0  0  0  0  0  0  0  0
  141.1610  110.6650  102.7540 C   0  0  1  0  0  0  0  0  0  0  0  0
  139.9990  110.7400  103.4550 C   0  0  1  0  0  0  0  0  0  0  0  0
  139.0600  110.0810  102.9170 C   0  0  0  0  0  0  0  0  0  0  0  0
  138.8470  110.4390  101.3080 C   0  0  0  0  0  0  0  0  0  0  0  0
  140.0240  110.5310  100.5470 C   0  0  1  0  0  0  0  0  0  0  0  0
  139.9770  110.7560   98.9770 C   0  0  0  0  0  0  0  0  0  0  0  0
  141.0110  111.1030  101.1110 C   0  0  1  0  0  0  0  0  0  0  0  0
  140.7830  112.6130  101.0650 C   0  0  0  0  0  0  0  0  0  0  0  0
  142.4510  110.7680  100.3590 C   0  0  0  0  0  0  0  0  0  0  0  0
  142.3980  110.9930   98.8650 C   0  0  0  0  0  0  0  0  0  0  0  0
  141.3360  110.3660   98.2840 C   0  0  2  0  0  0  0  0  0  0  0  0
  141.2750  110.7570   96.8460 O   0  0  0  0  0  0  0  0  0  0  0  0
  143.1885  111.5736  113.9217 H   0  0  0  0  0  0  0  0  0  0  0  0
  144.6949  112.4588  113.9386 H   0  0  0  0  0  0  0  0  0  0  0  0
  144.6088  110.8954  113.1629 H   0  0  0  0  0  0  0  0  0  0  0  0
  143.1585  113.3812  112.2517 H   0  0  0  0  0  0  0  0  0  0  0  0
  145.4962  111.8986  111.0405 H   0  0  0  0  0  0  0  0  0  0  0  0
  145.5841  113.4607  111.8185 H   0  0  0  0  0  0  0  0  0  0  0  0
  144.6942  113.2768  110.3261 H   0  0  0  0  0  0  0  0  0  0  0  0
  143.3562  110.6623  110.9103 H   0  0  0  0  0  0  0  0  0  0  0  0
  141.9565  111.2019  111.8046 H   0  0  0  0  0  0  0  0  0  0  0  0
  141.6621  113.0905  110.2507 H   0  0  0  0  0  0  0  0  0  0  0  0
  143.1041  112.6236  109.3825 H   0  0  0  0  0  0  0  0  0  0  0  0
  141.3818  110.3286  109.5555 H   0  0  0  0  0  0  0  0  0  0  0  0
  140.4370  111.6684  108.9606 H   0  0  0  0  0  0  0  0  0  0  0  0
  142.3244  112.1110  107.2355 H   0  0  0  0  0  0  0  0  0  0  0  0
  143.2375  109.3467  108.1950 H   0  0  0  0  0  0  0  0  0  0  0  0
  144.1095  110.8329  108.4848 H   0  0  0  0  0  0  0  0  0  0  0  0
  143.9512  110.2159  106.8578 H   0  0  0  0  0  0  0  0  0  0  0  0
  141.7075  109.4785  106.7195 H   0  0  0  0  0  0  0  0  0  0  0  0
  139.5056  109.6661  107.7458 H   0  0  0  0  0  0  0  0  0  0  0  0
  139.5157  111.3794  107.7334 H   0  0  0  0  0  0  0  0  0  0  0  0
  138.2729  109.5982  105.4929 H   0  0  0  0  0  0  0  0  0  0  0  0
  138.1963  111.3025  105.4579 H   0  0  0  0  0  0  0  0  0  0  0  0
  140.2853  109.4609  104.1237 H   0  0  0  0  0  0  0  0  0  0  0  0
  140.8207  113.2684  104.6325 H   0  0  0  0  0  0  0  0  0  0  0  0
  141.5116  113.1470  106.2328 H   0  0  0  0  0  0  0  0  0  0  0  0
  139.8644  112.6367  105.9514 H   0  0  0  0  0  0  0  0  0  0  0  0
  142.9319  112.2193  104.9617 H   0  0  0  0  0  0  0  0  0  0  0  0
  142.9053  110.4575  104.6226 H   0  0  0  0  0  0  0  0  0  0  0  0
  141.9569  112.6101  103.2731 H   0  0  0  0  0  0  0  0  0  0  0  0
  143.1822  111.3741  102.9302 H   0  0  0  0  0  0  0  0  0  0  0  0
  141.4471  109.6345  102.7884 H   0  0  0  0  0  0  0  0  0  0  0  0
  139.7062  111.7690  103.4344 H   0  0  0  0  0  0  0  0  0  0  0  0
  139.2816  109.0381  103.0069 H   0  0  0  0  0  0  0  0  0  0  0  0
  138.1554  110.3449  103.4239 H   0  0  0  0  0  0  0  0  0  0  0  0
  138.2358  109.6731  100.8782 H   0  0  0  0  0  0  0  0  0  0  0  0
  138.4031  111.4122  101.2803 H   0  0  0  0  0  0  0  0  0  0  0  0
  140.2084  109.4770  100.5560 H   0  0  0  0  0  0  0  0  0  0  0  0
  139.1941  110.1541   98.5651 H   0  0  0  0  0  0  0  0  0  0  0  0
  139.8011  111.7961   98.7974 H   0  0  0  0  0  0  0  0  0  0  0  0
  140.6836  112.9279  100.0472 H   0  0  0  0  0  0  0  0  0  0  0  0
  141.6158  113.1133  101.5134 H   0  0  0  0  0  0  0  0  0  0  0  0
  139.8899  112.8554  101.6022 H   0  0  0  0  0  0  0  0  0  0  0  0
  143.2082  111.4003  100.7733 H   0  0  0  0  0  0  0  0  0  0  0  0
  142.6660  109.7325  100.5214 H   0  0  0  0  0  0  0  0  0  0  0  0
  142.3215  112.0437   98.6779 H   0  0  0  0  0  0  0  0  0  0  0  0
  143.2912  110.5841   98.4408 H   0  0  0  0  0  0  0  0  0  0  0  0
  141.4721  109.3101   98.3906 H   0  0  0  0  0  0  0  0  0  0  0  0
  141.1515  111.7166   96.7768 H   0  0  0  0  0  0  0  0  0  0  0  0
  1 29  1  0  0  0  0
  1 30  1  0  0  0  0
  1 31  1  0  0  0  0
  2  1  1  0  0  0  0
  2 32  1  0  0  0  0
  3  2  1  0  0  0  0
  3 33  1  0  0  0  0
  3 34  1  0  0  0  0
  3 35  1  0  0  0  0
  4  2  1  0  0  0  0
  4 36  1  0  0  0  0
  4 37  1  0  0  0  0
  5  4  1  0  0  0  0
  5 38  1  0  0  0  0
  5 39  1  0  0  0  0
  6  5  1  0  0  0  0
  6 40  1  0  0  0  0
  6 41  1  0  0  0  0
  7  8  1  0  0  0  0
  7  6  1  0  0  0  0
  7 42  1  6  0  0  0
  8 43  1  0  0  0  0
  8 44  1  0  0  0  0
  8 45  1  0  0  0  0
  9 10  1  0  0  0  0
  9  7  1  0  0  0  0
  9 46  1  6  0  0  0
 10 47  1  0  0  0  0
 10 48  1  0  0  0  0
 11 10  1  0  0  0  0
 11 49  1  0  0  0  0
 11 50  1  0  0  0  0
 12 13  1  0  0  0  0
 12 11  1  0  0  0  0
 12 51  1  6  0  0  0
 13 14  1  1  0  0  0
 13  9  1  0  0  0  0
 14 52  1  0  0  0  0
 14 53  1  0  0  0  0
 14 54  1  0  0  0  0
 15 13  1  0  0  0  0
 15 55  1  0  0  0  0
 15 56  1  0  0  0  0
 16 15  1  0  0  0  0
 16 57  1  0  0  0  0
 16 58  1  0  0  0  0
 17 16  1  0  0  0  0
 17 18  1  0  0  0  0
 17 59  1  1  0  0  0
 18 12  1  0  0  0  0
 18 60  1  6  0  0  0
 19 18  1  0  0  0  0
 19 61  1  0  0  0  0
 19 62  1  0  0  0  0
 20 19  1  0  0  0  0
 20 63  1  0  0  0  0
 20 64  1  0  0  0  0
 21 23  1  0  0  0  0
 21 20  1  0  0  0  0
 21 65  1  1  0  0  0
 22 21  1  0  0  0  0
 22 66  1  0  0  0  0
 22 67  1  0  0  0  0
 23 24  1  6  0  0  0
 23 17  1  0  0  0  0
 24 68  1  0  0  0  0
 24 69  1  0  0  0  0
 24 70  1  0  0  0  0
 25 23  1  0  0  0  0
 25 71  1  0  0  0  0
 25 72  1  0  0  0  0
 26 25  1  0  0  0  0
 26 73  1  0  0  0  0
 26 74  1  0  0  0  0
 27 26  1  0  0  0  0
 27 22  1  0  0  0  0
 27 75  1  1  0  0  0
 28 27  1  0  0  0  0
 28 76  1  0  0  0  0
M  END
